SOLVER= RANS
KIND_TURB_MODEL= SA
MATH_PROBLEM= DIRECT
RESTART_SOL= YES
MACH_NUMBER= 0.762
AOA= 0.0
FREESTREAM_TEMPERATURE= 288.15
REYNOLDS_NUMBER= 6794238.68
REYNOLDS_LENGTH= 1.0
FIXED_CL_MODE= YES
TARGET_CL= 0.622131
DCL_DALPHA= 0.2
UPDATE_AOA_ITER_LIMIT= 200
ITER_DCL_DALPHA= 500
EVAL_DOF_DCX= NO
REF_ORIGIN_MOMENT_X= 0.25
REF_ORIGIN_MOMENT_Y= 0.00
REF_ORIGIN_MOMENT_Z= 0.00
REF_LENGTH= 1.0
REF_AREA= 1.0
MARKER_HEATFLUX= ( AIRFOIL, 0.0 )
MARKER_FAR= ( FARFIELD )
MARKER_PLOTTING= ( AIRFOIL )
MARKER_MONITORING= ( AIRFOIL )
NUM_METHOD_GRAD= WEIGHTED_LEAST_SQUARES
CFL_NUMBER= 10.0
ITER= 9999
OBJECTIVE_FUNCTION= DRAG
MUSCL_FLOW= NO
SLOPE_LIMITER_FLOW= VENKATAKRISHNAN
MUSCL_TURB= NO
SLOPE_LIMITER_TURB= VENKATAKRISHNAN
MUSCL_ADJFLOW= NO
SLOPE_LIMITER_ADJFLOW= VENKATAKRISHNAN
MUSCL_ADJTURB= NO
SLOPE_LIMITER_ADJTURB= VENKATAKRISHNAN
VENKAT_LIMITER_COEFF= 0.05
ADJ_SHARP_LIMITER_COEFF= 3.0
LIMITER_ITER= 999999
LAX_SENSOR_COEFF= 0.15
JST_SENSOR_COEFF= ( 0.5, 0.02 )
ADJ_LAX_SENSOR_COEFF= 0.15
ADJ_JST_SENSOR_COEFF= ( 0.5, 0.02 )
CONV_NUM_METHOD_FLOW= JST
ENTROPY_FIX_COEFF= 0.001
TIME_DISCRE_FLOW= EULER_IMPLICIT
CONV_NUM_METHOD_TURB= SCALAR_UPWIND
TIME_DISCRE_TURB= EULER_IMPLICIT
CFL_REDUCTION_TURB= 1.0
CONV_NUM_METHOD_ADJFLOW= JST
TIME_DISCRE_ADJFLOW= EULER_IMPLICIT
RELAXATION_FACTOR_ADJOINT= 1.0
CFL_REDUCTION_ADJFLOW= 0.8
LIMIT_ADJFLOW= 1E6
GEO_MARKER= ( AIRFOIL )
GEO_DESCRIPTION= AIRFOIL
GEO_MODE= FUNCTION
CONV_RESIDUAL_MINVAL= -12
CONV_STARTITER= 10
CONV_CAUCHY_ELEMS= 100
CONV_CAUCHY_EPS= 1E-6
MESH_FILENAME= trax_125.su2
MESH_FORMAT= SU2
MESH_OUT_FILENAME= trax_125_deform.su2
SOLUTION_FILENAME= solution_flow.dat
SOLUTION_ADJ_FILENAME= solution_adj.dat
TABULAR_FORMAT= CSV
CONV_FILENAME= history
RESTART_FILENAME= restart_flow.dat
RESTART_ADJ_FILENAME= restart_adj.dat
VOLUME_FILENAME= flow
VOLUME_ADJ_FILENAME= adjoint
GRAD_OBJFUNC_FILENAME= of_grad.dat
SURFACE_FILENAME= surface_flow
SURFACE_ADJ_FILENAME= surface_adjoint
OUTPUT_WRT_FREQ= 10000
SCREEN_OUTPUT= (INNER_ITER, RMS_DENSITY, RMS_NU_TILDE, LIFT, DRAG)
OUTPUT_FILES= (RESTART, PARAVIEW, SURFACE_PARAVIEW, SURFACE_CSV)
DV_KIND= HICKS_HENNE, HICKS_HENNE, HICKS_HENNE, HICKS_HENNE, HICKS_HENNE, HICKS_HENNE, HICKS_HENNE, HICKS_HENNE, HICKS_HENNE, HICKS_HENNE, HICKS_HENNE, HICKS_HENNE, HICKS_HENNE, HICKS_HENNE, HICKS_HENNE, HICKS_HENNE, HICKS_HENNE, HICKS_HENNE, HICKS_HENNE, HICKS_HENNE, HICKS_HENNE, HICKS_HENNE, HICKS_HENNE, HICKS_HENNE, HICKS_HENNE, HICKS_HENNE, HICKS_HENNE, HICKS_HENNE, HICKS_HENNE, HICKS_HENNE, HICKS_HENNE, HICKS_HENNE, HICKS_HENNE, HICKS_HENNE, HICKS_HENNE, HICKS_HENNE, HICKS_HENNE, HICKS_HENNE
DV_MARKER= ( ( AIRFOIL ) )
DV_PARAM= ( 0.0, 0.05) ; ( 0.0, 0.1) ; ( 0.0, 0.15) ; ( 0.0, 0.2) ; ( 0.0, 0.25) ; ( 0.0, 0.3) ; ( 0.0, 0.35) ; ( 0.0, 0.4) ; ( 0.0, 0.45) ; ( 0.0, 0.5) ; ( 0.0, 0.55) ; ( 0.0, 0.6) ; ( 0.0, 0.65) ; ( 0.0, 0.7) ; ( 0.0, 0.75) ; ( 0.0, 0.8) ; ( 0.0, 0.85) ; ( 0.0, 0.9) ; ( 0.0, 0.95) ; ( 1.0, 0.05) ; ( 1.0, 0.1) ; ( 1.0, 0.15) ; ( 1.0, 0.2) ; ( 1.0, 0.25) ; ( 1.0, 0.3) ; ( 1.0, 0.35) ; ( 1.0, 0.4) ; ( 1.0, 0.45) ; ( 1.0, 0.5) ; ( 1.0, 0.55) ; ( 1.0, 0.6) ; ( 1.0, 0.65) ; ( 1.0, 0.7) ; ( 1.0, 0.75) ; ( 1.0, 0.8) ; ( 1.0, 0.85) ; ( 1.0, 0.9) ; ( 1.0, 0.95) 
DV_VALUE= -0.0005710456156854516, -0.0006382338412113538, -0.0006911704075028965, -0.000737460465284376, -0.0007774560759396499, -0.0008088042932244519, -0.0008277200136050546, -0.000829942950480567, -0.000811749755273987, -0.0007713227917664904, -0.000709950096938963, -0.0006336530774437244, -0.0005536542648348632, -0.0004854373741393062, -0.0004443301382379521, -0.00043825766616244937, -0.00046424366050294534, -0.0005184866510529273, -0.0006810201558797449, -0.0004289698050624323, -0.00026416346086485115, -0.0002723399775312934, -0.0003441436929231119, -0.0004089825121006758, -0.00043273192140746015, -0.000411385235644846, -0.00036287901747858995, -0.00031675418575317053, -0.0003014226436934255, -0.0003308943962951516, -0.0003953152795153281, -0.0004622281228787983, -0.0004907171337234671, -0.00045499460924700583, -0.00036109620855585205, -0.0002388924280865174, -0.00014659527972560953, -0.0002480267466256605
OPT_OBJECTIVE= DRAG * 1.0 
OPT_GRADIENT_FACTOR= 1E-6
OPT_RELAX_FACTOR= 10
OPT_ITERATIONS= 100
OPT_ACCURACY= 1E-10
OPT_LINE_SEARCH_BOUND= 1E6
OPT_BOUND_UPPER= 1E10
OPT_BOUND_LOWER= -1E10
DEFINITION_DV= ( 30 , 1.0 | AIRFOIL  | 0.0 , 0.05  ); ( 30 , 1.0 | AIRFOIL  | 0.0 , 0.1  ); ( 30 , 1.0 | AIRFOIL  | 0.0 , 0.15  ); ( 30 , 1.0 | AIRFOIL  | 0.0 , 0.2  ); ( 30 , 1.0 | AIRFOIL  | 0.0 , 0.25  ); ( 30 , 1.0 | AIRFOIL  | 0.0 , 0.3  ); ( 30 , 1.0 | AIRFOIL  | 0.0 , 0.35  ); ( 30 , 1.0 | AIRFOIL  | 0.0 , 0.4  ); ( 30 , 1.0 | AIRFOIL  | 0.0 , 0.45  ); ( 30 , 1.0 | AIRFOIL  | 0.0 , 0.5  ); ( 30 , 1.0 | AIRFOIL  | 0.0 , 0.55  ); ( 30 , 1.0 | AIRFOIL  | 0.0 , 0.6  ); ( 30 , 1.0 | AIRFOIL  | 0.0 , 0.65  ); ( 30 , 1.0 | AIRFOIL  | 0.0 , 0.7  ); ( 30 , 1.0 | AIRFOIL  | 0.0 , 0.75  ); ( 30 , 1.0 | AIRFOIL  | 0.0 , 0.8  ); ( 30 , 1.0 | AIRFOIL  | 0.0 , 0.85  ); ( 30 , 1.0 | AIRFOIL  | 0.0 , 0.9  ); ( 30 , 1.0 | AIRFOIL  | 0.0 , 0.95  ); ( 30 , 1.0 | AIRFOIL  | 1.0 , 0.05  ); ( 30 , 1.0 | AIRFOIL  | 1.0 , 0.1  ); ( 30 , 1.0 | AIRFOIL  | 1.0 , 0.15  ); ( 30 , 1.0 | AIRFOIL  | 1.0 , 0.2  ); ( 30 , 1.0 | AIRFOIL  | 1.0 , 0.25  ); ( 30 , 1.0 | AIRFOIL  | 1.0 , 0.3  ); ( 30 , 1.0 | AIRFOIL  | 1.0 , 0.35  ); ( 30 , 1.0 | AIRFOIL  | 1.0 , 0.4  ); ( 30 , 1.0 | AIRFOIL  | 1.0 , 0.45  ); ( 30 , 1.0 | AIRFOIL  | 1.0 , 0.5  ); ( 30 , 1.0 | AIRFOIL  | 1.0 , 0.55  ); ( 30 , 1.0 | AIRFOIL  | 1.0 , 0.6  ); ( 30 , 1.0 | AIRFOIL  | 1.0 , 0.65  ); ( 30 , 1.0 | AIRFOIL  | 1.0 , 0.7  ); ( 30 , 1.0 | AIRFOIL  | 1.0 , 0.75  ); ( 30 , 1.0 | AIRFOIL  | 1.0 , 0.8  ); ( 30 , 1.0 | AIRFOIL  | 1.0 , 0.85  ); ( 30 , 1.0 | AIRFOIL  | 1.0 , 0.9  ); ( 30 , 1.0 | AIRFOIL  | 1.0 , 0.95  )
DV_VALUE_NEW= -0.0005710456156854516, -0.0006382338412113538, -0.0006911704075028965, -0.000737460465284376, -0.0007774560759396499, -0.0008088042932244519, -0.0008277200136050546, -0.000829942950480567, -0.000811749755273987, -0.0007713227917664904, -0.000709950096938963, -0.0006336530774437244, -0.0005536542648348632, -0.0004854373741393062, -0.0004443301382379521, -0.00043825766616244937, -0.00046424366050294534, -0.0005184866510529273, -0.0006810201558797449, -0.0004289698050624323, -0.00026416346086485115, -0.0002723399775312934, -0.0003441436929231119, -0.0004089825121006758, -0.00043273192140746015, -0.000411385235644846, -0.00036287901747858995, -0.00031675418575317053, -0.0003014226436934255, -0.0003308943962951516, -0.0003953152795153281, -0.0004622281228787983, -0.0004907171337234671, -0.00045499460924700583, -0.00036109620855585205, -0.0002388924280865174, -0.00014659527972560953, -0.0002480267466256605
DV_VALUE_OLD= 0.0, 0.0, 0.0, 0.0, 0.0, 0.0, 0.0, 0.0, 0.0, 0.0, 0.0, 0.0, 0.0, 0.0, 0.0, 0.0, 0.0, 0.0, 0.0, 0.0, 0.0, 0.0, 0.0, 0.0, 0.0, 0.0, 0.0, 0.0, 0.0, 0.0, 0.0, 0.0, 0.0, 0.0, 0.0, 0.0, 0.0, 0.0
OPT_COMBINE_OBJECTIVE= NO
OPT_CONSTRAINT= NONE
VALUE_OBJFUNC_FILENAME= of_eval.dat
SIDESLIP_ANGLE= 0.0
FREESTREAM_PRESSURE= 101325.0
MARKER_OUTLET= (NONE)
MULTIPOINT_WEIGHT= (1.0)
MULTIPOINT_MACH_NUMBER= (0.762)
MULTIPOINT_AOA= (0.0)
MULTIPOINT_SIDESLIP_ANGLE= (0.0)
MULTIPOINT_REYNOLDS_NUMBER= (6794238.68)
MULTIPOINT_TARGET_CL= (0.622131)
MULTIPOINT_FREESTREAM_PRESSURE= (101325.0)
MULTIPOINT_FREESTREAM_TEMPERATURE= (288.15)
MULTIPOINT_OUTLET_VALUE= (0.0)
MULTIPOINT_MESH_FILENAME= (trax_125.su2)
HISTORY_OUTPUT= ITER, RMS_RES, AERO_COEFF
NUMBER_PART= 16
NZONES= 1
CONSOLE= CONCISE
GRADIENT_METHOD= DISCRETE_ADJOINT
